@<TRIPOS>MOLECULE
ETH
    9     8     1     0     0
SMALL
bcc


@<TRIPOS>ATOM
      1 C1          -0.0000    -0.0000     0.0000 c3         1 ETH      -0.097100
      2 C2           1.5000     0.0000     0.0000 c3         1 ETH       0.131400
      3 O3           2.0010     0.7080    -1.2240 oh         1 ETH      -0.602800
      4 H4          -0.3340     0.9420     0.0000 hc         1 ETH       0.044367
      5 H5          -0.3330    -0.4720     0.8170 hc         1 ETH       0.044367
      6 H6          -0.3330    -0.4720    -0.8170 hc         1 ETH       0.044367
      7 H7           1.8340    -0.9430    -0.0000 h1         1 ETH       0.018700
      8 H8           1.8330     0.4710     0.8170 h1         1 ETH       0.018700
      9 H9           3.0010     0.7090    -1.2240 ho         1 ETH       0.398000
@<TRIPOS>BOND
     1     1     2 1   
     2     1     4 1   
     3     1     5 1   
     4     1     6 1   
     5     2     3 1   
     6     2     7 1   
     7     2     8 1   
     8     3     9 1   
@<TRIPOS>SUBSTRUCTURE
     1 ETH         1 TEMP              0 ****  ****    0 ROOT
